/*--------------------------------*- C++ -*----------------------------------*\
| =========                 |                                                 |
| \\      /  F ield         | OpenFOAM: The Open Source CFD Toolbox           |
|  \\    /   O peration     | Version:  2.3.1                                 |
|   \\  /    A nd           | Web:      www.OpenFOAM.org                      |
|    \\/     M anipulation  |                                                 |
\*---------------------------------------------------------------------------*/
FoamFile
{
    version     2.0;
    format      ascii;
    class       polyBoundaryMesh;
    location    "constant/polyMesh";
    object      boundary;
}
// * * * * * * * * * * * * * * * * * * * * * * * * * * * * * * * * * * * * * //

8
(
    inlet
    {
        type            patch;
        nFaces          0;
        startFace       196179;
    }
    outlet
    {
        type            patch;
        nFaces          0;
        startFace       196179;
    }
    walls
    {
        type            patch;
        nFaces          6427;
        startFace       196179;
    }
    procBoundary0to1
    {
        type            processor;
        inGroups        1(processor);
        nFaces          2578;
        startFace       202606;
        matchTolerance  0.0001;
        transform       unknown;
        myProcNo        0;
        neighbProcNo    1;
    }
    procBoundary0to8
    {
        type            processor;
        inGroups        1(processor);
        nFaces          289;
        startFace       205184;
        matchTolerance  0.0001;
        transform       unknown;
        myProcNo        0;
        neighbProcNo    8;
    }
    procBoundary0to9
    {
        type            processor;
        inGroups        1(processor);
        nFaces          238;
        startFace       205473;
        matchTolerance  0.0001;
        transform       unknown;
        myProcNo        0;
        neighbProcNo    9;
    }
    procBoundary0to16
    {
        type            processor;
        inGroups        1(processor);
        nFaces          3256;
        startFace       205711;
        matchTolerance  0.0001;
        transform       unknown;
        myProcNo        0;
        neighbProcNo    16;
    }
    procBoundary0to25
    {
        type            processor;
        inGroups        1(processor);
        nFaces          83;
        startFace       208967;
        matchTolerance  0.0001;
        transform       unknown;
        myProcNo        0;
        neighbProcNo    25;
    }
)

// ************************************************************************* //
