/*--------------------------------*- C++ -*----------------------------------*\
| =========                 |                                                 |
| \\      /  F ield         | OpenFOAM: The Open Source CFD Toolbox           |
|  \\    /   O peration     | Version:  2.3.1                                 |
|   \\  /    A nd           | Web:      www.OpenFOAM.org                      |
|    \\/     M anipulation  |                                                 |
\*---------------------------------------------------------------------------*/
FoamFile
{
    version     2.0;
    format      ascii;
    class       polyBoundaryMesh;
    location    "constant/polyMesh";
    object      boundary;
}
// * * * * * * * * * * * * * * * * * * * * * * * * * * * * * * * * * * * * * //

10
(
    inlet
    {
        type            patch;
        nFaces          0;
        startFace       197296;
    }
    outlet
    {
        type            patch;
        nFaces          149;
        startFace       197296;
    }
    walls
    {
        type            patch;
        nFaces          1957;
        startFace       197445;
    }
    procBoundary11to3
    {
        type            processor;
        inGroups        1(processor);
        nFaces          406;
        startFace       199402;
        matchTolerance  0.0001;
        transform       unknown;
        myProcNo        11;
        neighbProcNo    3;
    }
    procBoundary11to4
    {
        type            processor;
        inGroups        1(processor);
        nFaces          338;
        startFace       199808;
        matchTolerance  0.0001;
        transform       unknown;
        myProcNo        11;
        neighbProcNo    4;
    }
    procBoundary11to10
    {
        type            processor;
        inGroups        1(processor);
        nFaces          3610;
        startFace       200146;
        matchTolerance  0.0001;
        transform       unknown;
        myProcNo        11;
        neighbProcNo    10;
    }
    procBoundary11to12
    {
        type            processor;
        inGroups        1(processor);
        nFaces          6214;
        startFace       203756;
        matchTolerance  0.0001;
        transform       unknown;
        myProcNo        11;
        neighbProcNo    12;
    }
    procBoundary11to20
    {
        type            processor;
        inGroups        1(processor);
        nFaces          18;
        startFace       209970;
        matchTolerance  0.0001;
        transform       unknown;
        myProcNo        11;
        neighbProcNo    20;
    }
    procBoundary11to26
    {
        type            processor;
        inGroups        1(processor);
        nFaces          827;
        startFace       209988;
        matchTolerance  0.0001;
        transform       unknown;
        myProcNo        11;
        neighbProcNo    26;
    }
    procBoundary11to27
    {
        type            processor;
        inGroups        1(processor);
        nFaces          1685;
        startFace       210815;
        matchTolerance  0.0001;
        transform       unknown;
        myProcNo        11;
        neighbProcNo    27;
    }
)

// ************************************************************************* //
