/*--------------------------------*- C++ -*----------------------------------*\
| =========                 |                                                 |
| \\      /  F ield         | OpenFOAM: The Open Source CFD Toolbox           |
|  \\    /   O peration     | Version:  2.3.1                                 |
|   \\  /    A nd           | Web:      www.OpenFOAM.org                      |
|    \\/     M anipulation  |                                                 |
\*---------------------------------------------------------------------------*/
FoamFile
{
    version     2.0;
    format      ascii;
    class       polyBoundaryMesh;
    location    "constant/polyMesh";
    object      boundary;
}
// * * * * * * * * * * * * * * * * * * * * * * * * * * * * * * * * * * * * * //

11
(
    inlet
    {
        type            patch;
        nFaces          0;
        startFace       196934;
    }
    outlet
    {
        type            patch;
        nFaces          0;
        startFace       196934;
    }
    walls
    {
        type            patch;
        nFaces          3782;
        startFace       196934;
    }
    procBoundary25to0
    {
        type            processor;
        inGroups        1(processor);
        nFaces          83;
        startFace       200716;
        matchTolerance  0.0001;
        transform       unknown;
        myProcNo        25;
        neighbProcNo    0;
    }
    procBoundary25to1
    {
        type            processor;
        inGroups        1(processor);
        nFaces          726;
        startFace       200799;
        matchTolerance  0.0001;
        transform       unknown;
        myProcNo        25;
        neighbProcNo    1;
    }
    procBoundary25to8
    {
        type            processor;
        inGroups        1(processor);
        nFaces          635;
        startFace       201525;
        matchTolerance  0.0001;
        transform       unknown;
        myProcNo        25;
        neighbProcNo    8;
    }
    procBoundary25to9
    {
        type            processor;
        inGroups        1(processor);
        nFaces          4190;
        startFace       202160;
        matchTolerance  0.0001;
        transform       unknown;
        myProcNo        25;
        neighbProcNo    9;
    }
    procBoundary25to10
    {
        type            processor;
        inGroups        1(processor);
        nFaces          1148;
        startFace       206350;
        matchTolerance  0.0001;
        transform       unknown;
        myProcNo        25;
        neighbProcNo    10;
    }
    procBoundary25to17
    {
        type            processor;
        inGroups        1(processor);
        nFaces          1;
        startFace       207498;
        matchTolerance  0.0001;
        transform       unknown;
        myProcNo        25;
        neighbProcNo    17;
    }
    procBoundary25to26
    {
        type            processor;
        inGroups        1(processor);
        nFaces          522;
        startFace       207499;
        matchTolerance  0.0001;
        transform       unknown;
        myProcNo        25;
        neighbProcNo    26;
    }
    procBoundary25to41
    {
        type            processor;
        inGroups        1(processor);
        nFaces          3185;
        startFace       208021;
        matchTolerance  0.0001;
        transform       unknown;
        myProcNo        25;
        neighbProcNo    41;
    }
)

// ************************************************************************* //
