/*--------------------------------*- C++ -*----------------------------------*\
| =========                 |                                                 |
| \\      /  F ield         | OpenFOAM: The Open Source CFD Toolbox           |
|  \\    /   O peration     | Version:  2.3.1                                 |
|   \\  /    A nd           | Web:      www.OpenFOAM.org                      |
|    \\/     M anipulation  |                                                 |
\*---------------------------------------------------------------------------*/
FoamFile
{
    version     2.0;
    format      ascii;
    class       polyBoundaryMesh;
    location    "constant/polyMesh";
    object      boundary;
}
// * * * * * * * * * * * * * * * * * * * * * * * * * * * * * * * * * * * * * //

15
(
    inlet
    {
        type            patch;
        nFaces          0;
        startFace       198685;
    }
    outlet
    {
        type            patch;
        nFaces          46;
        startFace       198685;
    }
    walls
    {
        type            patch;
        nFaces          684;
        startFace       198731;
    }
    procBoundary26to1
    {
        type            processor;
        inGroups        1(processor);
        nFaces          10;
        startFace       199415;
        matchTolerance  0.0001;
        transform       unknown;
        myProcNo        26;
        neighbProcNo    1;
    }
    procBoundary26to2
    {
        type            processor;
        inGroups        1(processor);
        nFaces          501;
        startFace       199425;
        matchTolerance  0.0001;
        transform       unknown;
        myProcNo        26;
        neighbProcNo    2;
    }
    procBoundary26to3
    {
        type            processor;
        inGroups        1(processor);
        nFaces          30;
        startFace       199926;
        matchTolerance  0.0001;
        transform       unknown;
        myProcNo        26;
        neighbProcNo    3;
    }
    procBoundary26to10
    {
        type            processor;
        inGroups        1(processor);
        nFaces          4045;
        startFace       199956;
        matchTolerance  0.0001;
        transform       unknown;
        myProcNo        26;
        neighbProcNo    10;
    }
    procBoundary26to11
    {
        type            processor;
        inGroups        1(processor);
        nFaces          827;
        startFace       204001;
        matchTolerance  0.0001;
        transform       unknown;
        myProcNo        26;
        neighbProcNo    11;
    }
    procBoundary26to17
    {
        type            processor;
        inGroups        1(processor);
        nFaces          28;
        startFace       204828;
        matchTolerance  0.0001;
        transform       unknown;
        myProcNo        26;
        neighbProcNo    17;
    }
    procBoundary26to18
    {
        type            processor;
        inGroups        1(processor);
        nFaces          96;
        startFace       204856;
        matchTolerance  0.0001;
        transform       unknown;
        myProcNo        26;
        neighbProcNo    18;
    }
    procBoundary26to19
    {
        type            processor;
        inGroups        1(processor);
        nFaces          8;
        startFace       204952;
        matchTolerance  0.0001;
        transform       unknown;
        myProcNo        26;
        neighbProcNo    19;
    }
    procBoundary26to25
    {
        type            processor;
        inGroups        1(processor);
        nFaces          522;
        startFace       204960;
        matchTolerance  0.0001;
        transform       unknown;
        myProcNo        26;
        neighbProcNo    25;
    }
    procBoundary26to27
    {
        type            processor;
        inGroups        1(processor);
        nFaces          1489;
        startFace       205482;
        matchTolerance  0.0001;
        transform       unknown;
        myProcNo        26;
        neighbProcNo    27;
    }
    procBoundary26to41
    {
        type            processor;
        inGroups        1(processor);
        nFaces          1258;
        startFace       206971;
        matchTolerance  0.0001;
        transform       unknown;
        myProcNo        26;
        neighbProcNo    41;
    }
    procBoundary26to42
    {
        type            processor;
        inGroups        1(processor);
        nFaces          3478;
        startFace       208229;
        matchTolerance  0.0001;
        transform       unknown;
        myProcNo        26;
        neighbProcNo    42;
    }
)

// ************************************************************************* //
