/*--------------------------------*- C++ -*----------------------------------*\
| =========                 |                                                 |
| \\      /  F ield         | OpenFOAM: The Open Source CFD Toolbox           |
|  \\    /   O peration     | Version:  2.3.1                                 |
|   \\  /    A nd           | Web:      www.OpenFOAM.org                      |
|    \\/     M anipulation  |                                                 |
\*---------------------------------------------------------------------------*/
FoamFile
{
    version     2.0;
    format      ascii;
    class       polyBoundaryMesh;
    location    "constant/polyMesh";
    object      boundary;
}
// * * * * * * * * * * * * * * * * * * * * * * * * * * * * * * * * * * * * * //

9
(
    inlet
    {
        type            patch;
        nFaces          0;
        startFace       197427;
    }
    outlet
    {
        type            patch;
        nFaces          228;
        startFace       197427;
    }
    walls
    {
        type            patch;
        nFaces          209;
        startFace       197655;
    }
    procBoundary36to20
    {
        type            processor;
        inGroups        1(processor);
        nFaces          1056;
        startFace       197864;
        matchTolerance  0.0001;
        transform       unknown;
        myProcNo        36;
        neighbProcNo    20;
    }
    procBoundary36to28
    {
        type            processor;
        inGroups        1(processor);
        nFaces          40;
        startFace       198920;
        matchTolerance  0.0001;
        transform       unknown;
        myProcNo        36;
        neighbProcNo    28;
    }
    procBoundary36to35
    {
        type            processor;
        inGroups        1(processor);
        nFaces          6992;
        startFace       198960;
        matchTolerance  0.0001;
        transform       unknown;
        myProcNo        36;
        neighbProcNo    35;
    }
    procBoundary36to37
    {
        type            processor;
        inGroups        1(processor);
        nFaces          7603;
        startFace       205952;
        matchTolerance  0.0001;
        transform       unknown;
        myProcNo        36;
        neighbProcNo    37;
    }
    procBoundary36to43
    {
        type            processor;
        inGroups        1(processor);
        nFaces          549;
        startFace       213555;
        matchTolerance  0.0001;
        transform       unknown;
        myProcNo        36;
        neighbProcNo    43;
    }
    procBoundary36to44
    {
        type            processor;
        inGroups        1(processor);
        nFaces          709;
        startFace       214104;
        matchTolerance  0.0001;
        transform       unknown;
        myProcNo        36;
        neighbProcNo    44;
    }
)

// ************************************************************************* //
