/*--------------------------------*- C++ -*----------------------------------*\
| =========                 |                                                 |
| \\      /  F ield         | OpenFOAM: The Open Source CFD Toolbox           |
|  \\    /   O peration     | Version:  2.3.1                                 |
|   \\  /    A nd           | Web:      www.OpenFOAM.org                      |
|    \\/     M anipulation  |                                                 |
\*---------------------------------------------------------------------------*/
FoamFile
{
    version     2.0;
    format      ascii;
    class       polyBoundaryMesh;
    location    "constant/polyMesh";
    object      boundary;
}
// * * * * * * * * * * * * * * * * * * * * * * * * * * * * * * * * * * * * * //

10
(
    inlet
    {
        type            patch;
        nFaces          0;
        startFace       198139;
    }
    outlet
    {
        type            patch;
        nFaces          347;
        startFace       198139;
    }
    walls
    {
        type            patch;
        nFaces          3584;
        startFace       198486;
    }
    procBoundary2to1
    {
        type            processor;
        inGroups        1(processor);
        nFaces          901;
        startFace       202070;
        matchTolerance  0.0001;
        transform       unknown;
        myProcNo        2;
        neighbProcNo    1;
    }
    procBoundary2to3
    {
        type            processor;
        inGroups        1(processor);
        nFaces          3856;
        startFace       202971;
        matchTolerance  0.0001;
        transform       unknown;
        myProcNo        2;
        neighbProcNo    3;
    }
    procBoundary2to10
    {
        type            processor;
        inGroups        1(processor);
        nFaces          244;
        startFace       206827;
        matchTolerance  0.0001;
        transform       unknown;
        myProcNo        2;
        neighbProcNo    10;
    }
    procBoundary2to17
    {
        type            processor;
        inGroups        1(processor);
        nFaces          1003;
        startFace       207071;
        matchTolerance  0.0001;
        transform       unknown;
        myProcNo        2;
        neighbProcNo    17;
    }
    procBoundary2to18
    {
        type            processor;
        inGroups        1(processor);
        nFaces          3008;
        startFace       208074;
        matchTolerance  0.0001;
        transform       unknown;
        myProcNo        2;
        neighbProcNo    18;
    }
    procBoundary2to19
    {
        type            processor;
        inGroups        1(processor);
        nFaces          95;
        startFace       211082;
        matchTolerance  0.0001;
        transform       unknown;
        myProcNo        2;
        neighbProcNo    19;
    }
    procBoundary2to26
    {
        type            processor;
        inGroups        1(processor);
        nFaces          501;
        startFace       211177;
        matchTolerance  0.0001;
        transform       unknown;
        myProcNo        2;
        neighbProcNo    26;
    }
)

// ************************************************************************* //
