/*--------------------------------*- C++ -*----------------------------------*\
| =========                 |                                                 |
| \\      /  F ield         | OpenFOAM: The Open Source CFD Toolbox           |
|  \\    /   O peration     | Version:  2.3.1                                 |
|   \\  /    A nd           | Web:      www.OpenFOAM.org                      |
|    \\/     M anipulation  |                                                 |
\*---------------------------------------------------------------------------*/
FoamFile
{
    version     2.0;
    format      ascii;
    class       polyBoundaryMesh;
    location    "constant/polyMesh";
    object      boundary;
}
// * * * * * * * * * * * * * * * * * * * * * * * * * * * * * * * * * * * * * //

9
(
    inlet
    {
        type            patch;
        nFaces          0;
        startFace       195547;
    }
    outlet
    {
        type            patch;
        nFaces          0;
        startFace       195547;
    }
    walls
    {
        type            patch;
        nFaces          6932;
        startFace       195547;
    }
    procBoundary16to0
    {
        type            processor;
        inGroups        1(processor);
        nFaces          3256;
        startFace       202479;
        matchTolerance  0.0001;
        transform       unknown;
        myProcNo        16;
        neighbProcNo    0;
    }
    procBoundary16to1
    {
        type            processor;
        inGroups        1(processor);
        nFaces          112;
        startFace       205735;
        matchTolerance  0.0001;
        transform       unknown;
        myProcNo        16;
        neighbProcNo    1;
    }
    procBoundary16to8
    {
        type            processor;
        inGroups        1(processor);
        nFaces          901;
        startFace       205847;
        matchTolerance  0.0001;
        transform       unknown;
        myProcNo        16;
        neighbProcNo    8;
    }
    procBoundary16to17
    {
        type            processor;
        inGroups        1(processor);
        nFaces          856;
        startFace       206748;
        matchTolerance  0.0001;
        transform       unknown;
        myProcNo        16;
        neighbProcNo    17;
    }
    procBoundary16to32
    {
        type            processor;
        inGroups        1(processor);
        nFaces          879;
        startFace       207604;
        matchTolerance  0.0001;
        transform       unknown;
        myProcNo        16;
        neighbProcNo    32;
    }
    procBoundary16to33
    {
        type            processor;
        inGroups        1(processor);
        nFaces          264;
        startFace       208483;
        matchTolerance  0.0001;
        transform       unknown;
        myProcNo        16;
        neighbProcNo    33;
    }
)

// ************************************************************************* //
